Version 4.1
SHEET 1 1060 680
WIRE 576 -192 352 -192
WIRE 352 -80 352 -192
WIRE 352 -80 256 -80
WIRE 448 -80 352 -80
WIRE 576 -80 576 -112
WIRE 448 80 448 0
WIRE 608 80 448 80
WIRE 720 80 672 80
WIRE 896 80 800 80
WIRE -240 112 -336 112
WIRE -48 112 -176 112
WIRE -48 128 -48 112
WIRE 96 128 -48 128
WIRE 256 128 256 0
WIRE 256 128 160 128
WIRE 384 128 256 128
WIRE -336 208 -336 112
WIRE -48 208 -48 128
WIRE 448 224 448 176
WIRE 592 224 448 224
WIRE 896 224 896 80
WIRE 256 256 256 128
WIRE 448 256 448 224
WIRE 592 272 592 224
WIRE -336 416 -336 288
WIRE -48 416 -48 288
WIRE -48 416 -336 416
WIRE 256 416 256 336
WIRE 256 416 -48 416
WIRE 448 416 448 336
WIRE 448 416 256 416
WIRE 592 416 592 336
WIRE 592 416 448 416
WIRE 896 416 896 288
WIRE 896 416 592 416
WIRE 896 432 896 416
WIRE 448 480 448 416
FLAG 576 -80 0
FLAG 448 480 0
FLAG 896 432 0
SYMBOL voltage -336 192 R0
SYMATTR InstName V2
SYMATTR Value SINE(0 10m 5k)
SYMBOL cap -176 96 R90
WINDOW 0 0 32 VBottom 2
WINDOW 3 32 32 VTop 2
SYMATTR InstName C1
SYMATTR Value 100n
SYMBOL res 240 -96 R0
SYMATTR InstName R2
SYMATTR Value 82k
SYMBOL res 240 240 R0
SYMATTR InstName R3
SYMATTR Value 27k
SYMBOL res 432 -96 R0
SYMATTR InstName R4
SYMATTR Value 4.7k
SYMBOL npn 384 80 R0
SYMATTR InstName Q1
SYMBOL res 432 240 R0
SYMATTR InstName R5
SYMATTR Value 1k
SYMBOL cap 672 64 R90
WINDOW 0 0 32 VBottom 2
WINDOW 3 32 32 VTop 2
SYMATTR InstName C3
SYMATTR Value 10Á
SYMBOL cap 576 272 R0
SYMATTR InstName C4
SYMATTR Value 100Á
SYMBOL voltage 576 -208 R0
WINDOW 123 0 0 Left 0
WINDOW 39 0 0 Left 0
SYMATTR InstName V2
SYMATTR Value 9
SYMBOL cap 160 112 R90
WINDOW 0 0 32 VBottom 2
WINDOW 3 32 32 VTop 2
SYMATTR InstName C2
SYMATTR Value 10Á
SYMBOL res -64 192 R0
SYMATTR InstName R1
SYMATTR Value 820
SYMBOL res 816 64 R90
WINDOW 0 0 56 VBottom 2
WINDOW 3 32 56 VTop 2
SYMATTR InstName R7
SYMATTR Value 10k
SYMBOL cap 880 224 R0
SYMATTR InstName C5
SYMATTR Value 1.2n
TEXT -112 504 Left 2 !.tran 1
